build/datapreprocessor/datapreprocessor/datapreprocessor/data/opendss/8500Bus/IEEE8500u_EXP_VOLTAGES.CSV
Bus, BasekV, Node1, Magnitude1, Angle1, pu1, Node2, Magnitude2, Angle2, pu2, Node3, Magnitude3, Angle3, pu3
"SOURCEBUS", 115, 1,      69715,    0.0,      1.05, 2,      69715, -120.0,      1.05, 3,      69715,  120.0,      1.05
"_HVMV_SUB_LSB", 12.47, 1,    7552.14,  -34.5,     1.049, 2,    7538.71, -154.3,    1.0471, 3,    7559.08,   85.9,    1.0499
"HVMV_SUB_48332", 12.47, 1,    7552.14,  -34.5,     1.049, 2,     7538.7, -154.3,    1.0471, 3,    7559.08,   85.9,    1.0499
"M1009763", 12.47, 1,    7233.54,  -44.9,    1.0047, 2,     7298.7, -167.2,    1.0138, 3,    7363.48,   79.5,    1.0228
"L2673322", 12.47, 2,    7298.58, -167.2,    1.0138, 0, 0, 0, 0, 0, 0, 0, 0
"M1069148", 12.47, 3,    7415.29,   80.4,      1.03, 0, 0, 0, 0, 0, 0, 0, 0
"L2673309", 12.47, 3,       7415,   80.4,    1.0299, 0, 0, 0, 0, 0, 0, 0, 0
"M1069588", 12.47, 2,     7251.7, -165.4,    1.0072, 0, 0, 0, 0, 0, 0, 0, 0
"L2804270", 12.47, 2,    7251.66, -165.4,    1.0072, 0, 0, 0, 0, 0, 0, 0, 0
"M3036164", 12.47, 2,    7166.89, -167.0,   0.99546, 0, 0, 0, 0, 0, 0, 0, 0
"L2935553", 12.47, 2,    7165.42, -167.0,   0.99526, 0, 0, 0, 0, 0, 0, 0, 0
"M1209749", 12.47, 2,    7375.66, -156.5,    1.0245, 0, 0, 0, 0, 0, 0, 0, 0
"L2748840", 12.47, 2,    7375.44, -156.5,    1.0244, 0, 0, 0, 0, 0, 0, 0, 0
"M1108264", 12.47, 2,    7415.72, -160.5,      1.03, 0, 0, 0, 0, 0, 0, 0, 0
"M1108263", 12.47, 2,    7415.31, -160.5,      1.03, 0, 0, 0, 0, 0, 0, 0, 0
"L3085398", 12.47, 1,    7280.05,  -44.9,    1.0112, 2,    7342.66, -167.1,    1.0199, 3,    7374.86,   79.5,    1.0243
"M1026891", 12.47, 1,    7276.75,  -44.9,    1.0107, 2,    7336.34, -167.1,     1.019, 3,     7373.7,   79.5,    1.0242
"L3216367", 12.47, 1,    7350.37,  -44.4,    1.0209, 2,    7305.31, -166.7,    1.0147, 3,    7311.07,   79.2,    1.0155
"M1069468", 12.47, 1,    7349.72,  -44.4,    1.0209, 2,    7303.07, -166.7,    1.0144, 3,    7310.28,   79.1,    1.0154
"M1142800", 12.47, 2,    7196.79, -159.0,   0.99962, 0, 0, 0, 0, 0, 0, 0, 0
"M1142799", 12.47, 2,    7196.62, -159.0,   0.99959, 0, 0, 0, 0, 0, 0, 0, 0
"M1047592", 12.47, 1,    7398.41,  -44.5,    1.0276, 2,    7422.97, -166.6,     1.031, 3,    7408.51,   79.5,     1.029
"P827512", 12.47, 3,     7408.5,   79.5,     1.029, 0, 0, 0, 0, 0, 0, 0, 0
"M1047339", 12.47, 1,    7265.56,  -40.8,    1.0092, 2,     7211.6, -161.7,    1.0017, 3,    7419.56,   79.9,    1.0306
"P895104", 12.47, 1,    7265.52,  -40.8,    1.0092, 0, 0, 0, 0, 0, 0, 0, 0
"M1026915", 12.47, 1,    7278.44,  -44.9,     1.011, 2,    7344.92, -167.1,    1.0202, 3,    7373.84,   79.5,    1.0242
"M1026920", 12.47, 1,    7276.37,  -44.9,    1.0107, 2,    7343.91, -167.1,    1.0201, 3,    7372.84,   79.5,    1.0241
"N1138596", 12.47, 1,    7332.12,  -44.3,    1.0184, 0, 0, 0, 0, 0, 0, 0, 0
"L3254207", 12.47, 1,    7331.62,  -44.3,    1.0183, 0, 0, 0, 0, 0, 0, 0, 0
"M1069464", 12.47, 1,     7348.7,  -44.4,    1.0207, 2,    7299.06, -166.7,    1.0138, 3,    7308.89,   79.1,    1.0152
"P873787", 12.47, 2,    7299.03, -166.7,    1.0138, 0, 0, 0, 0, 0, 0, 0, 0
"N1144665", 12.47, 1,    7423.56,  -44.3,    1.0311, 2,    7436.32, -166.4,    1.0329, 3,    7400.69,   79.6,    1.0279
"M1047515", 12.47, 1,    7418.24,  -44.3,    1.0304, 2,    7432.39, -166.4,    1.0323, 3,    7395.95,   79.6,    1.0273
"N1137002", 12.47, 1,    7389.54,  -44.3,    1.0264, 0, 0, 0, 0, 0, 0, 0, 0
"M1047707", 12.47, 1,    7389.24,  -44.3,    1.0263, 0, 0, 0, 0, 0, 0, 0, 0
"L2729406", 12.47, 3,    7260.27,   81.3,    1.0084, 0, 0, 0, 0, 0, 0, 0, 0
"L2897768", 12.47, 3,    7259.73,   81.3,    1.0084, 0, 0, 0, 0, 0, 0, 0, 0
"L3649301", 12.47, 1,    7366.96,  -44.6,    1.0233, 0, 0, 0, 0, 0, 0, 0, 0
"L3649302", 12.47, 1,    7366.58,  -44.6,    1.0232, 0, 0, 0, 0, 0, 0, 0, 0
"L2970842", 12.47, 2,    7438.19, -160.5,    1.0331, 0, 0, 0, 0, 0, 0, 0, 0
"M1089113", 12.47, 2,    7436.77, -160.5,    1.0329, 0, 0, 0, 0, 0, 0, 0, 0
"M1047312", 12.47, 1,     7231.5,  -40.8,    1.0044, 2,    7175.27, -161.7,   0.99663, 3,    7410.37,   79.9,    1.0293
"P893163", 12.47, 1,    7231.42,  -40.8,    1.0044, 0, 0, 0, 0, 0, 0, 0, 0
"L2822871", 12.47, 1,    7312.16,  -44.8,    1.0156, 2,    7379.83, -166.9,     1.025, 3,    7384.55,   79.5,    1.0257
"M1026872", 12.47, 1,    7309.49,  -44.8,    1.0153, 2,    7377.05, -166.9,    1.0247, 3,    7383.63,   79.5,    1.0256
"M1026312", 12.47, 2,    7021.15, -162.0,   0.97522, 0, 0, 0, 0, 0, 0, 0, 0
"L2973163", 12.47, 2,    7018.41, -162.0,   0.97484, 0, 0, 0, 0, 0, 0, 0, 0
"L3728038", 12.47, 1,    7356.08,  -44.5,    1.0217, 0, 0, 0, 0, 0, 0, 0, 0
"L3728039", 12.47, 1,    7355.55,  -44.5,    1.0217, 0, 0, 0, 0, 0, 0, 0, 0
"M1069567", 12.47, 2,    7264.68, -165.4,     1.009, 0, 0, 0, 0, 0, 0, 0, 0
"M1069582", 12.47, 2,    7255.54, -165.4,    1.0078, 0, 0, 0, 0, 0, 0, 0, 0
"N1140830", 12.47, 1,    7220.16,  -44.7,    1.0029, 0, 0, 0, 0, 0, 0, 0, 0
"L3216351", 12.47, 1,    7220.07,  -44.7,    1.0028, 0, 0, 0, 0, 0, 0, 0, 0
"L2952007", 12.47, 3,    7377.74,   84.7,    1.0247, 0, 0, 0, 0, 0, 0, 0, 0
"L2861158", 12.47, 3,     7377.4,   84.7,    1.0247, 0, 0, 0, 0, 0, 0, 0, 0
"N1140827", 12.47, 1,    7225.45,  -44.6,    1.0036, 2,     7390.5, -166.3,    1.0265, 3,    7265.14,   79.7,    1.0091
"M1026726", 12.47, 1,    7225.38,  -44.6,    1.0036, 2,    7390.37, -166.3,    1.0265, 3,    7265.07,   79.7,    1.0091
"L2730106", 12.47, 1,    6825.34,  -41.0,   0.94802, 2,    7045.01, -162.1,   0.97853, 3,    7454.47,   81.5,    1.0354
"N1142099", 12.47, 1,    6822.72,  -41.0,   0.94766, 2,    7043.72, -162.1,   0.97835, 3,    7454.41,   81.5,    1.0354
"M1026658", 12.47, 1,    7218.45,  -44.7,    1.0026, 2,    7392.08, -166.3,    1.0267, 3,    7250.44,   79.7,    1.0071
"L3172805", 12.47, 1,    7218.27,  -44.7,    1.0026, 0, 0, 0, 0, 0, 0, 0, 0
"P895112", 12.47, 1,    7123.28,  -38.7,   0.98941, 0, 0, 0, 0, 0, 0, 0, 0
"L3048962", 12.47, 1,    7123.22,  -38.7,    0.9894, 0, 0, 0, 0, 0, 0, 0, 0
"L2991914", 12.47, 1,    7371.04,  -44.4,    1.0238, 2,    7405.25, -166.4,    1.0286, 3,    7356.84,   79.6,    1.0218
"M1047503", 12.47, 1,    7367.36,  -44.4,    1.0233, 2,    7404.94, -166.4,    1.0285, 3,    7354.49,   79.6,    1.0215
"M1047751", 12.47, 1,    7346.41,  -44.1,    1.0204, 0, 0, 0, 0, 0, 0, 0, 0
"L2973154", 12.47, 1,    7346.37,  -44.1,    1.0204, 0, 0, 0, 0, 0, 0, 0, 0
"L3010565", 12.47, 3,    7412.12,   80.4,    1.0295, 0, 0, 0, 0, 0, 0, 0, 0
"L2897775", 12.47, 3,    7411.86,   80.4,    1.0295, 0, 0, 0, 0, 0, 0, 0, 0
"M1125955", 12.47, 3,     7456.7,   82.0,    1.0357, 0, 0, 0, 0, 0, 0, 0, 0
"M1125957", 12.47, 3,    7456.68,   82.0,    1.0357, 0, 0, 0, 0, 0, 0, 0, 0
"M1069640", 12.47, 2,    7228.02, -165.4,     1.004, 0, 0, 0, 0, 0, 0, 0, 0
"L2804269", 12.47, 2,    7227.28, -165.4,    1.0038, 0, 0, 0, 0, 0, 0, 0, 0
"M1026702", 12.47, 1,    7249.26,  -44.6,    1.0069, 2,    7394.35, -166.3,    1.0271, 3,    7284.16,   79.7,    1.0118
"N1139551", 12.47, 1,    7237.96,  -44.6,    1.0053, 2,    7393.76, -166.3,     1.027, 3,     7277.6,   79.7,    1.0108
"N1136355", 12.47, 2,     7305.5, -165.3,    1.0147, 0, 0, 0, 0, 0, 0, 0, 0
"L2783231", 12.47, 2,    7298.15, -165.3,    1.0137, 0, 0, 0, 0, 0, 0, 0, 0
"L2748143", 12.47, 1,    7222.95,  -43.1,    1.0032, 0, 0, 0, 0, 0, 0, 0, 0
"L3251854", 12.47, 1,    7222.84,  -43.1,    1.0032, 0, 0, 0, 0, 0, 0, 0, 0
"M1069610", 12.47, 2,     7239.1, -165.4,    1.0055, 0, 0, 0, 0, 0, 0, 0, 0
"M1069600", 12.47, 2,    7238.99, -165.4,    1.0055, 0, 0, 0, 0, 0, 0, 0, 0
"M1069424", 12.47, 1,    7340.84,  -44.4,    1.0196, 2,    7268.38, -166.8,    1.0096, 3,    7298.21,   79.0,    1.0137
"L2935549", 12.47, 1,    7339.77,  -44.3,    1.0195, 2,    7264.19, -166.8,     1.009, 3,    7296.94,   79.0,    1.0135
"P895089", 12.47, 3,    7503.72,   80.5,    1.0422, 0, 0, 0, 0, 0, 0, 0, 0
"L3235242", 12.47, 3,     7503.5,   80.5,    1.0422, 0, 0, 0, 0, 0, 0, 0, 0
"M1026795", 12.47, 1,    7331.85,  -44.5,    1.0184, 2,    7402.18, -166.4,    1.0281, 3,     7332.1,   79.6,    1.0184
"N1140522", 12.47, 3,    7332.07,   79.6,    1.0184, 0, 0, 0, 0, 0, 0, 0, 0
"L3030199", 12.47, 1,     7168.4,  -38.7,   0.99567, 2,    7198.13, -159.1,    0.9998, 3,    7441.18,   82.1,    1.0336
"M1125934", 12.47, 1,    7168.41,  -38.7,   0.99567, 2,    7197.17, -159.1,   0.99967, 3,    7440.51,   82.1,    1.0335
"M1069189", 12.47, 1,    7422.75,  -40.2,     1.031, 2,    7387.15, -160.7,    1.0261, 3,    7430.89,   80.4,    1.0321
"L2860487", 12.47, 3,    7430.75,   80.4,    1.0321, 0, 0, 0, 0, 0, 0, 0, 0
"221-312488", 12.47, 1,    6861.99,  -40.5,   0.95311, 2,    7044.32, -161.5,   0.97844, 3,     7446.6,   81.7,    1.0343
"M1089183", 12.47, 1,    6861.98,  -40.5,   0.95311, 2,    7044.31, -161.5,   0.97844, 3,    7446.59,   81.7,    1.0343
"M1108464", 12.47, 2,    7041.86, -161.6,    0.9781, 0, 0, 0, 0, 0, 0, 0, 0
"L3102286", 12.47, 2,    7041.35, -161.6,   0.97803, 0, 0, 0, 0, 0, 0, 0, 0
"F739845", 12.47, 1,    7214.41,  -40.8,    1.0021, 2,    7148.36, -161.8,   0.99289, 3,    7404.96,   79.9,    1.0285
"293471", 12.47, 1,    7214.34,  -40.8,    1.0021, 2,    7148.28, -161.8,   0.99288, 3,    7404.89,   79.9,    1.0285
"P827499", 12.47, 1,    7338.63,  -44.3,    1.0193, 0, 0, 0, 0, 0, 0, 0, 0
"N1139254", 12.47, 1,    7338.62,  -44.3,    1.0193, 0, 0, 0, 0, 0, 0, 0, 0
"M1026657", 12.47, 1,    7214.83,  -44.7,    1.0021, 0, 0, 0, 0, 0, 0, 0, 0
"M1026656", 12.47, 1,     7214.6,  -44.7,    1.0021, 0, 0, 0, 0, 0, 0, 0, 0
"M1108299", 12.47, 2,     7165.5, -159.4,   0.99527, 0, 0, 0, 0, 0, 0, 0, 0
"M1108300", 12.47, 2,    7165.47, -159.4,   0.99527, 0, 0, 0, 0, 0, 0, 0, 0
"L3198355", 12.47, 2,    7165.08, -159.4,   0.99521, 0, 0, 0, 0, 0, 0, 0, 0
"L2805037", 12.47, 2,    7165.08, -159.4,   0.99521, 0, 0, 0, 0, 0, 0, 0, 0
"N1137994", 12.47, 3,    7316.21,   79.2,    1.0162, 0, 0, 0, 0, 0, 0, 0, 0
"M1069484", 12.47, 3,    7314.71,   79.2,     1.016, 0, 0, 0, 0, 0, 0, 0, 0
"L2860504", 12.47, 1,     7221.2,  -44.7,     1.003, 0, 0, 0, 0, 0, 0, 0, 0
"L2860493", 12.47, 1,    7220.49,  -44.7,    1.0029, 0, 0, 0, 0, 0, 0, 0, 0
"M1026783", 12.47, 1,    7320.94,  -44.5,    1.0169, 2,    7401.27, -166.4,     1.028, 3,    7326.02,   79.6,    1.0176
"M1026780", 12.47, 1,     7319.2,  -44.5,    1.0166, 2,     7401.1, -166.4,     1.028, 3,    7325.05,   79.6,    1.0174
"P895111", 12.47, 3,    7460.01,   82.3,    1.0362, 0, 0, 0, 0, 0, 0, 0, 0
"L2895496", 12.47, 3,    7459.67,   82.3,    1.0361, 0, 0, 0, 0, 0, 0, 0, 0
"N1140819", 12.47, 1,    7229.81,  -44.6,    1.0042, 2,    7391.56, -166.3,    1.0267, 3,    7269.67,   79.7,    1.0097
"M1026700", 12.47, 1,    7228.65,  -44.6,     1.004, 2,    7391.18, -166.3,    1.0266, 3,    7268.39,   79.7,    1.0096
"M1089173", 12.47, 3,    7263.07,   81.3,    1.0088, 0, 0, 0, 0, 0, 0, 0, 0
"L2935551", 12.47, 3,    7262.08,   81.3,    1.0087, 0, 0, 0, 0, 0, 0, 0, 0
"M1026344", 12.47, 1,     7168.4,  -40.7,   0.99567, 0, 0, 0, 0, 0, 0, 0, 0
"M1026364", 12.47, 1,    7168.09,  -40.7,   0.99563, 0, 0, 0, 0, 0, 0, 0, 0
"L2879070", 12.47, 1,    7386.48,  -44.6,     1.026, 2,    7418.79, -166.6,    1.0305, 3,    7404.86,   79.6,    1.0285
"L3216345", 12.47, 1,     7378.4,  -44.6,    1.0248, 2,     7416.2, -166.7,    1.0301, 3,    7402.83,   79.6,    1.0282
"M1069428", 12.47, 1,    7341.93,  -44.4,    1.0198, 2,    7271.93, -166.8,    1.0101, 3,    7299.34,   79.0,    1.0139
"N1139257", 12.47, 2,    7271.88, -166.8,      1.01, 0, 0, 0, 0, 0, 0, 0, 0
"L2991919", 12.47, 1,    7164.34,  -40.7,   0.99511, 0, 0, 0, 0, 0, 0, 0, 0
"M1026361", 12.47, 1,    7161.78,  -40.7,   0.99475, 0, 0, 0, 0, 0, 0, 0, 0
"N1147857", 12.47, 1,     7233.5,  -44.9,    1.0047, 0, 0, 0, 0, 0, 0, 0, 0
"M1009742", 12.47, 1,    7231.77,  -44.9,    1.0045, 0, 0, 0, 0, 0, 0, 0, 0
"Q14412", 12.47, 1,    7256.36,  -40.8,    1.0079, 2,    7202.04, -161.7,    1.0003, 3,    7417.25,   79.9,    1.0302
"M1047325", 12.47, 1,    7253.75,  -40.8,    1.0075, 2,    7199.39, -161.7,   0.99998, 3,    7416.57,   79.9,    1.0301
"N1139263", 12.47, 1,    7349.64,  -44.4,    1.0208, 0, 0, 0, 0, 0, 0, 0, 0
"L3048227", 12.47, 1,    7349.58,  -44.4,    1.0208, 0, 0, 0, 0, 0, 0, 0, 0
"P827506", 12.47, 1,    7349.69,  -44.4,    1.0209, 0, 0, 0, 0, 0, 0, 0, 0
"M1069469", 12.47, 1,    7349.66,  -44.4,    1.0208, 0, 0, 0, 0, 0, 0, 0, 0
"M1027019", 12.47, 2,    7307.14, -167.2,    1.0149, 0, 0, 0, 0, 0, 0, 0, 0
"L2785522", 12.47, 2,    7307.03, -167.2,    1.0149, 0, 0, 0, 0, 0, 0, 0, 0
"L3216338", 12.47, 2,    7247.79, -167.3,    1.0067, 0, 0, 0, 0, 0, 0, 0, 0
"L2973146", 12.47, 2,    7247.68, -167.3,    1.0067, 0, 0, 0, 0, 0, 0, 0, 0
"M3037452", 12.47, 1,    7154.29,  -40.7,   0.99371, 0, 0, 0, 0, 0, 0, 0, 0
"L2973164", 12.47, 1,    7154.22,  -40.7,    0.9937, 0, 0, 0, 0, 0, 0, 0, 0
"L3120376", 12.47, 1,    7323.63,  -44.8,    1.0172, 0, 0, 0, 0, 0, 0, 0, 0
"M1026925", 12.47, 1,    7321.93,  -44.8,     1.017, 0, 0, 0, 0, 0, 0, 0, 0
"M1047612", 12.47, 3,    7416.47,   79.6,    1.0301, 0, 0, 0, 0, 0, 0, 0, 0
"P828360", 12.47, 3,    7416.44,   79.6,    1.0301, 0, 0, 0, 0, 0, 0, 0, 0
"M1089195", 12.47, 3,    7503.24,   80.5,    1.0422, 0, 0, 0, 0, 0, 0, 0, 0
"L3141393", 12.47, 3,    7503.03,   80.5,    1.0422, 0, 0, 0, 0, 0, 0, 0, 0
"M1026946", 12.47, 2,    7323.61, -167.1,    1.0172, 0, 0, 0, 0, 0, 0, 0, 0
"M1026940", 12.47, 2,    7323.08, -167.1,    1.0172, 0, 0, 0, 0, 0, 0, 0, 0
"M1047471", 12.47, 2,    7126.48, -167.2,   0.98985, 0, 0, 0, 0, 0, 0, 0, 0
"L3216349", 12.47, 2,    7126.46, -167.2,   0.98985, 0, 0, 0, 0, 0, 0, 0, 0
"M1047401", 12.47, 1,    7164.57,  -44.8,   0.99514, 0, 0, 0, 0, 0, 0, 0, 0
"L2748132", 12.47, 1,    7164.49,  -44.8,   0.99513, 0, 0, 0, 0, 0, 0, 0, 0
"L3122820", 12.47, 1,    7194.06,  -44.7,   0.99924, 0, 0, 0, 0, 0, 0, 0, 0
"L3141398", 12.47, 1,       7194,  -44.7,   0.99923, 0, 0, 0, 0, 0, 0, 0, 0
"M1108360", 12.47, 3,    7336.83,   81.4,    1.0191, 0, 0, 0, 0, 0, 0, 0, 0
"L3048968", 12.47, 3,    7336.61,   81.4,     1.019, 0, 0, 0, 0, 0, 0, 0, 0
"L2801950", 12.47, 3,    7392.47,   80.4,    1.0268, 0, 0, 0, 0, 0, 0, 0, 0
"M1069224", 12.47, 3,    7391.81,   80.4,    1.0267, 0, 0, 0, 0, 0, 0, 0, 0
"L2766746", 12.47, 3,    7295.38,   79.3,    1.0133, 0, 0, 0, 0, 0, 0, 0, 0
"M1027073", 12.47, 3,    7293.23,   79.3,     1.013, 0, 0, 0, 0, 0, 0, 0, 0
"M1142873", 12.47, 3,    7459.42,   82.3,    1.0361, 0, 0, 0, 0, 0, 0, 0, 0
"M1069181", 12.47, 1,    7381.82,  -40.3,    1.0253, 0, 0, 0, 0, 0, 0, 0, 0
"L2973151", 12.47, 1,     7380.2,  -40.3,    1.0251, 0, 0, 0, 0, 0, 0, 0, 0
"L3179682", 12.47, 3,    7419.13,   81.6,    1.0305, 0, 0, 0, 0, 0, 0, 0, 0
"L2786274", 12.47, 3,    7419.05,   81.6,    1.0305, 0, 0, 0, 0, 0, 0, 0, 0
"L3066816", 12.47, 1,    7219.17,  -44.7,    1.0027, 0, 0, 0, 0, 0, 0, 0, 0
"M1026667", 12.47, 1,    7218.76,  -44.7,    1.0027, 0, 0, 0, 0, 0, 0, 0, 0
"M1108529", 12.47, 1,    7417.21,  -41.7,    1.0302, 2,    7437.38, -163.0,     1.033, 3,    7499.67,   81.1,    1.0417
"M1108532", 12.47, 1,    7414.82,  -41.7,    1.0299, 2,    7435.85, -163.0,    1.0328, 3,    7499.74,   81.1,    1.0417
"L2766723", 12.47, 1,    7220.27,  -44.7,    1.0029, 0, 0, 0, 0, 0, 0, 0, 0
"L3122822", 12.47, 1,    7220.13,  -44.7,    1.0029, 0, 0, 0, 0, 0, 0, 0, 0
"L2673312", 12.47, 1,    7221.69,  -44.9,    1.0031, 0, 0, 0, 0, 0, 0, 0, 0
"L3235247", 12.47, 1,    7221.52,  -44.9,    1.0031, 0, 0, 0, 0, 0, 0, 0, 0
"M1166391", 12.47, 3,    7392.57,   84.8,    1.0268, 0, 0, 0, 0, 0, 0, 0, 0
"L3254873", 12.47, 3,    7388.55,   84.8,    1.0263, 0, 0, 0, 0, 0, 0, 0, 0
"L2861157", 12.47, 3,    7431.94,   84.9,    1.0323, 0, 0, 0, 0, 0, 0, 0, 0
"P901951", 12.47, 3,    7428.23,   84.9,    1.0318, 0, 0, 0, 0, 0, 0, 0, 0
"M1047346", 12.47, 1,    7279.84,  -40.8,    1.0112, 2,    7224.78, -161.7,    1.0035, 3,     7422.8,   79.8,     1.031
"M1047345", 12.47, 1,    7276.04,  -40.8,    1.0106, 2,    7221.48, -161.7,     1.003, 3,    7421.96,   79.8,    1.0309
"L2989596", 12.47, 2,    7274.07, -165.4,    1.0103, 0, 0, 0, 0, 0, 0, 0, 0
"L2822873", 12.47, 2,    7273.98, -165.4,    1.0103, 0, 0, 0, 0, 0, 0, 0, 0
"M1108328", 12.47, 3,     7395.4,   81.5,    1.0272, 0, 0, 0, 0, 0, 0, 0, 0
"L2875754", 12.47, 3,    7395.32,   81.5,    1.0272, 0, 0, 0, 0, 0, 0, 0, 0
"L2786204", 12.47, 3,    7494.37,   85.0,    1.0409, 0, 0, 0, 0, 0, 0, 0, 0
"M1209819", 12.47, 3,     7490.1,   85.0,    1.0404, 0, 0, 0, 0, 0, 0, 0, 0
"P901972", 12.47, 1,    7231.41,  -44.9,    1.0044, 0, 0, 0, 0, 0, 0, 0, 0
"M1009726", 12.47, 1,    7228.64,  -44.9,     1.004, 0, 0, 0, 0, 0, 0, 0, 0
"M1047702", 12.47, 1,    7389.61,  -44.3,    1.0264, 0, 0, 0, 0, 0, 0, 0, 0
"N1137001", 12.47, 1,    7389.57,  -44.3,    1.0264, 0, 0, 0, 0, 0, 0, 0, 0
"L2767340", 12.47, 1,    6921.16,  -40.2,   0.96133, 2,    7090.77, -161.2,   0.98489, 3,    7455.74,   81.8,    1.0356
"M3037449", 12.47, 1,    6921.16,  -40.2,   0.96133, 2,    7090.77, -161.2,   0.98489, 3,    7455.74,   81.8,    1.0356
"M1047457", 12.47, 2,    7134.43, -167.2,   0.99095, 0, 0, 0, 0, 0, 0, 0, 0
"L2710546", 12.47, 2,    7133.52, -167.2,   0.99083, 0, 0, 0, 0, 0, 0, 0, 0
"L2674027", 12.47, 1,    6760.54,  -41.5,   0.93902, 2,    7011.04, -162.8,   0.97382, 3,    7453.65,   81.2,    1.0353
"L2692633", 12.47, 1,     6753.3,  -41.6,   0.93802, 2,    7006.89, -162.9,   0.97324, 3,     7453.6,   81.2,    1.0353
"N1142108", 12.47, 1,    7169.26,  -38.9,   0.99579, 0, 0, 0, 0, 0, 0, 0, 0
"L2674051", 12.47, 1,    7169.18,  -38.9,   0.99578, 0, 0, 0, 0, 0, 0, 0, 0
"M1069135", 12.47, 1,    7304.55,  -40.7,    1.0146, 2,    7246.21, -161.6,    1.0065, 3,    7429.44,   79.9,    1.0319
"R18242", 12.47, 1,     7299.5,  -40.8,    1.0139, 2,    7242.11, -161.6,    1.0059, 3,    7428.91,   79.8,    1.0319
"M1047534", 12.47, 1,    7506.46,  -44.1,    1.0426, 2,     7499.7, -166.2,    1.0417, 3,    7458.57,   79.7,     1.036
"N1136663", 12.47, 1,    7484.98,  -44.2,    1.0396, 2,    7483.04, -166.3,    1.0394, 3,    7446.62,   79.7,    1.0343
"M1108508", 12.47, 3,    7500.39,   80.9,    1.0418, 0, 0, 0, 0, 0, 0, 0, 0
"L3097861", 12.47, 3,    7500.32,   80.9,    1.0418, 0, 0, 0, 0, 0, 0, 0, 0
"M1069560", 12.47, 2,    7269.98, -165.4,    1.0098, 0, 0, 0, 0, 0, 0, 0, 0
"L2973153", 12.47, 1,    7400.38,  -44.3,    1.0279, 2,    7372.05, -166.6,     1.024, 3,    7418.58,   79.6,    1.0304
"N1136998", 12.47, 1,    7399.84,  -44.3,    1.0278, 2,    7370.76, -166.6,    1.0238, 3,    7418.74,   79.6,    1.0304
"L2898515", 12.47, 3,    7485.73,   83.6,    1.0397, 0, 0, 0, 0, 0, 0, 0, 0
"M1166387", 12.47, 3,    7485.54,   83.6,    1.0397, 0, 0, 0, 0, 0, 0, 0, 0
"M1047442", 12.47, 2,    7164.65, -167.1,   0.99515, 0, 0, 0, 0, 0, 0, 0, 0
"L3235250", 12.47, 2,    7164.58, -167.1,   0.99514, 0, 0, 0, 0, 0, 0, 0, 0
"M1142871", 12.47, 1,    7093.49,  -39.0,   0.98527, 2,    7185.88, -159.5,    0.9981, 3,    7460.32,   82.4,    1.0362
"M1142874", 12.47, 1,    7088.22,  -39.0,   0.98454, 2,     7182.8, -159.5,   0.99767, 3,    7460.05,   82.3,    1.0362
"L2955081", 12.47, 1,    7169.74,  -39.0,   0.99586, 2,    7172.95, -159.3,    0.9963, 3,     7421.6,   81.6,    1.0308
"M1108315", 12.47, 1,    7170.08,  -39.0,   0.99591, 2,    7170.23, -159.3,   0.99593, 3,    7419.35,   81.6,    1.0305
"L2973162", 12.47, 1,    7168.48,  -40.7,   0.99568, 2,    7079.17, -161.9,   0.98328, 3,    7412.27,   79.9,    1.0295
"M1026333", 12.47, 1,    7167.88,  -40.7,    0.9956, 2,    7075.39, -161.9,   0.98275, 3,    7413.16,   79.9,    1.0297
"M1009832", 12.47, 2,    7256.26, -167.3,    1.0079, 0, 0, 0, 0, 0, 0, 0, 0
"L2860479", 12.47, 2,    7256.22, -167.3,    1.0079, 0, 0, 0, 0, 0, 0, 0, 0
"M1026854", 12.47, 1,    7338.77,  -44.8,    1.0193, 2,       7400, -166.8,    1.0278, 3,    7392.33,   79.6,    1.0268
"P901894", 12.47, 1,    7338.56,  -44.8,    1.0193, 0, 0, 0, 0, 0, 0, 0, 0
"M1026485", 12.47, 2,    7180.42, -161.7,   0.99734, 0, 0, 0, 0, 0, 0, 0, 0
"M1026492", 12.47, 2,    7180.17, -161.7,   0.99731, 0, 0, 0, 0, 0, 0, 0, 0
"D6413567-3_INT", 12.47, 1,    7403.82,  -40.3,    1.0284, 2,    7370.93, -160.8,    1.0238, 3,    7429.33,   80.3,    1.0319
"E182724", 12.47, 1,    7403.77,  -40.3,    1.0284, 2,    7370.87, -160.8,    1.0238, 3,    7429.33,   80.3,    1.0319
"N1139541", 12.47, 1,    7405.76,  -40.2,    1.0286, 2,    7372.59, -160.8,     1.024, 3,    7429.48,   80.3,    1.0319
"M4122658", 12.47, 1,     6846.5,  -40.8,   0.95096, 2,    7055.46, -161.9,   0.97999, 3,    7455.11,   81.5,    1.0355
"L2933135", 12.47, 1,    6846.31,  -40.8,   0.95093, 2,    7055.36, -161.9,   0.97997, 3,    7455.11,   81.5,    1.0355
"L2729414", 12.47, 1,    7249.19,  -44.6,    1.0069, 2,    7394.27, -166.3,     1.027, 3,    7284.08,   79.7,    1.0117
"L2729430", 12.47, 2,     7293.4, -167.2,     1.013, 0, 0, 0, 0, 0, 0, 0, 0
"L2766742", 12.47, 2,    7286.41, -167.2,    1.0121, 0, 0, 0, 0, 0, 0, 0, 0
"M1026972", 12.47, 2,    7168.85, -167.0,   0.99574, 0, 0, 0, 0, 0, 0, 0, 0
"L2860483", 12.47, 2,    7168.63, -167.0,    0.9957, 0, 0, 0, 0, 0, 0, 0, 0
"L2860490", 12.47, 1,    7289.48,  -40.8,    1.0125, 2,    7233.45, -161.7,    1.0047, 3,    7425.76,   79.8,    1.0314
"L3104134", 12.47, 1,    7283.87,  -40.8,    1.0117, 2,    7228.37, -161.7,     1.004, 3,    7423.95,   79.8,    1.0312
"M1089144", 12.47, 1,    7030.61,  -39.6,   0.97653, 0, 0, 0, 0, 0, 0, 0, 0
"P827522", 12.47, 1,    7030.59,  -39.6,   0.97653, 0, 0, 0, 0, 0, 0, 0, 0
"M1089118", 12.47, 1,    7463.89,  -40.0,    1.0367, 2,    7430.47, -160.5,    1.0321, 3,     7459.5,   80.6,    1.0361
"L3048208", 12.47, 1,    7463.83,  -40.0,    1.0367, 0, 0, 0, 0, 0, 0, 0, 0
"M1108505", 12.47, 1,    6779.83,  -41.4,    0.9417, 2,    7022.29, -162.6,   0.97538, 3,    7453.63,   81.3,    1.0353
"L2955047", 12.47, 1,    6773.93,  -41.4,   0.94088, 2,    7018.86, -162.7,    0.9749, 3,    7453.65,   81.3,    1.0353
"M1089148", 12.47, 1,    7027.65,  -39.6,   0.97612, 0, 0, 0, 0, 0, 0, 0, 0
"L2766721", 12.47, 1,    7027.54,  -39.6,   0.97611, 0, 0, 0, 0, 0, 0, 0, 0
"M1026745", 12.47, 2,    7122.75, -167.2,   0.98933, 0, 0, 0, 0, 0, 0, 0, 0
"L3029183", 12.47, 2,    7122.64, -167.2,   0.98932, 0, 0, 0, 0, 0, 0, 0, 0
"L2710512", 12.47, 2,    7139.85, -167.1,   0.99171, 0, 0, 0, 0, 0, 0, 0, 0
"M1047828", 12.47, 2,    7135.41, -167.1,   0.99109, 0, 0, 0, 0, 0, 0, 0, 0
"M1047342", 12.47, 1,    7275.46,  -40.8,    1.0105, 0, 0, 0, 0, 0, 0, 0, 0
"L3197645", 12.47, 1,    7275.33,  -40.8,    1.0105, 0, 0, 0, 0, 0, 0, 0, 0
"M1069192", 12.47, 1,     7386.6,  -40.3,     1.026, 0, 0, 0, 0, 0, 0, 0, 0
"L3235253", 12.47, 1,    7386.47,  -40.3,     1.026, 0, 0, 0, 0, 0, 0, 0, 0
"L3214071", 12.47, 1,    7012.26,  -39.5,   0.97399, 2,    7139.27, -160.3,   0.99163, 3,    7457.13,   82.1,    1.0358
"M1125952", 12.47, 1,    7004.85,  -39.6,   0.97296, 2,    7135.05, -160.4,   0.99104, 3,    7456.89,   82.0,    1.0357
"M1027101", 12.47, 2,    7136.46, -167.1,   0.99124, 0, 0, 0, 0, 0, 0, 0, 0
"L2860480", 12.47, 2,    7136.15, -167.1,   0.99119, 0, 0, 0, 0, 0, 0, 0, 0
"L2710517", 12.47, 1,    7196.08,  -44.7,   0.99952, 0, 0, 0, 0, 0, 0, 0, 0
"M1026646", 12.47, 1,    7194.62,  -44.7,   0.99931, 0, 0, 0, 0, 0, 0, 0, 0
"M1069662", 12.47, 2,    7226.68, -165.5,    1.0038, 0, 0, 0, 0, 0, 0, 0, 0
"L2935547", 12.47, 2,    7226.61, -165.5,    1.0038, 0, 0, 0, 0, 0, 0, 0, 0
"M1026931", 12.47, 1,    7317.12,  -44.8,    1.0163, 0, 0, 0, 0, 0, 0, 0, 0
"L3216336", 12.47, 1,     7316.6,  -44.8,    1.0163, 0, 0, 0, 0, 0, 0, 0, 0
"L3142049", 12.47, 1,       6812,  -41.1,   0.94617, 2,    7038.37, -162.3,   0.97761, 3,    7454.17,   81.4,    1.0354
"M1108493", 12.47, 1,    6802.21,  -41.2,   0.94481, 2,    7033.45, -162.4,   0.97693, 3,    7453.99,   81.4,    1.0353
"M1069169", 12.47, 1,    7391.75,  -40.3,    1.0267, 2,    7360.54, -160.9,    1.0224, 3,    7428.42,   80.3,    1.0318
"L3010556", 12.47, 1,    7384.86,  -40.3,    1.0257, 2,    7351.77, -160.9,    1.0211, 3,    7427.96,   80.3,    1.0317
"L2991933", 12.47, 3,    7363.68,   79.5,    1.0228, 0, 0, 0, 0, 0, 0, 0, 0
"L3122837", 12.47, 3,       7363,   79.4,    1.0227, 0, 0, 0, 0, 0, 0, 0, 0
"L2691936", 12.47, 1,    7316.06,  -44.8,    1.0162, 0, 0, 0, 0, 0, 0, 0, 0
"L2897772", 12.47, 1,    7225.41,  -40.8,    1.0036, 0, 0, 0, 0, 0, 0, 0, 0
"L3101814", 12.47, 1,    7225.41,  -40.8,    1.0036, 0, 0, 0, 0, 0, 0, 0, 0
"L2766732", 12.47, 2,    7180.63, -161.7,   0.99737, 0, 0, 0, 0, 0, 0, 0, 0
"L2989564", 12.47, 2,    7226.98, -165.4,    1.0038, 0, 0, 0, 0, 0, 0, 0, 0
"M1126016", 12.47, 1,    6764.49,  -41.4,   0.93957, 0, 0, 0, 0, 0, 0, 0, 0
"L3120534", 12.47, 1,    6764.13,  -41.4,   0.93952, 0, 0, 0, 0, 0, 0, 0, 0
"M1026330", 12.47, 1,    7166.94,  -40.7,   0.99547, 2,    7068.01, -161.9,   0.98173, 3,    7414.99,   79.9,    1.0299
"L2766726", 12.47, 2,    7067.96, -161.9,   0.98172, 0, 0, 0, 0, 0, 0, 0, 0
"P901912", 12.47, 2,    7393.94, -166.4,     1.027, 0, 0, 0, 0, 0, 0, 0, 0
"L3195365", 12.47, 2,    7393.94, -166.4,     1.027, 0, 0, 0, 0, 0, 0, 0, 0
"M1108381", 12.47, 1,    6865.38,  -40.5,   0.95358, 2,    7047.82, -161.5,   0.97892, 3,    7449.31,   81.7,    1.0347
"L3254237", 12.47, 1,    6864.16,  -40.5,   0.95341, 2,    7047.02, -161.5,   0.97881, 3,    7448.65,   81.7,    1.0346
"L2804262", 12.47, 1,    7336.06,  -44.8,     1.019, 0, 0, 0, 0, 0, 0, 0, 0
"L2841639", 12.47, 1,    7333.67,  -44.8,    1.0186, 0, 0, 0, 0, 0, 0, 0, 0
"N1230123", 12.47, 2,    7054.58, -161.5,   0.97986, 0, 0, 0, 0, 0, 0, 0, 0
"L2708744", 12.47, 2,    7052.94, -161.5,   0.97963, 0, 0, 0, 0, 0, 0, 0, 0
"M1069519", 12.47, 1,    7226.74,  -43.1,    1.0038, 2,    7315.19, -165.2,    1.0161, 3,    7512.71,   80.2,    1.0435
"P901927", 12.47, 2,    7315.17, -165.2,    1.0161, 0, 0, 0, 0, 0, 0, 0, 0
"L2897790", 12.47, 3,    7517.04,   80.2,    1.0441, 0, 0, 0, 0, 0, 0, 0, 0
"L2935566", 12.47, 3,     7516.9,   80.2,    1.0441, 0, 0, 0, 0, 0, 0, 0, 0
"L3216337", 12.47, 1,    7317.06,  -44.8,    1.0163, 0, 0, 0, 0, 0, 0, 0, 0
"P901931", 12.47, 3,    7517.28,   80.2,    1.0441, 0, 0, 0, 0, 0, 0, 0, 0
"M1069548", 12.47, 3,    7517.26,   80.2,    1.0441, 0, 0, 0, 0, 0, 0, 0, 0
"M1010013", 12.47, 1,    7145.21,  -45.1,   0.99245, 0, 0, 0, 0, 0, 0, 0, 0
"L3120503", 12.47, 1,    7145.15,  -45.1,   0.99244, 0, 0, 0, 0, 0, 0, 0, 0
"M1089145", 12.47, 1,     7030.4,  -39.6,    0.9765, 2,     7017.7, -160.0,   0.97474, 3,    7310.75,   81.0,    1.0154
"L3215385", 12.47, 1,    7030.32,  -39.6,   0.97649, 2,    7017.57, -160.0,   0.97472, 3,    7310.68,   81.0,    1.0154
"M1026852", 12.47, 1,     7330.8,  -44.8,    1.0182, 2,     7394.6, -166.8,    1.0271, 3,       7390,   79.6,    1.0265
"M1069420", 12.47, 1,    7338.65,  -44.3,    1.0193, 2,    7259.82, -166.9,    1.0084, 3,    7295.48,   79.0,    1.0133
"L3157708", 12.47, 3,    7376.34,   79.6,    1.0246, 0, 0, 0, 0, 0, 0, 0, 0
"N1137991", 12.47, 3,    7376.33,   79.6,    1.0246, 0, 0, 0, 0, 0, 0, 0, 0
"M1108413", 12.47, 1,    6870.18,  -40.5,   0.95425, 0, 0, 0, 0, 0, 0, 0, 0
"M1108460", 12.47, 1,     6867.7,  -40.5,   0.95391, 0, 0, 0, 0, 0, 0, 0, 0
"P827532", 12.47, 1,    7253.72,  -40.8,    1.0075, 0, 0, 0, 0, 0, 0, 0, 0
"M1047326", 12.47, 1,     7253.7,  -40.8,    1.0075, 0, 0, 0, 0, 0, 0, 0, 0
"E182732", 12.47, 1,    7286.92,  -44.5,    1.0121, 2,    7397.76, -166.3,    1.0275, 3,    7306.57,   79.7,    1.0149
"M1026760", 12.47, 1,    7286.08,  -44.5,     1.012, 2,    7397.66, -166.3,    1.0275, 3,    7306.07,   79.7,    1.0148
"L3048205", 12.47, 3,    7326.32,   81.4,    1.0176, 0, 0, 0, 0, 0, 0, 0, 0
"M1108361", 12.47, 3,     7313.2,   81.4,    1.0158, 0, 0, 0, 0, 0, 0, 0, 0
"M3036169", 12.47, 1,    7199.28,  -44.7,   0.99996, 0, 0, 0, 0, 0, 0, 0, 0
"L2673317", 12.47, 1,     7199.2,  -44.7,   0.99995, 0, 0, 0, 0, 0, 0, 0, 0
"L3178981", 12.47, 2,    7239.41, -161.6,    1.0055, 0, 0, 0, 0, 0, 0, 0, 0
"M1047368", 12.47, 2,    7227.44, -161.6,    1.0039, 0, 0, 0, 0, 0, 0, 0, 0
"N1136354", 12.47, 1,    7225.24,  -43.1,    1.0036, 2,    7311.57, -165.3,    1.0156, 3,    7515.41,   80.2,    1.0439
"L2879794", 12.47, 1,    7164.07,  -38.7,   0.99507, 0, 0, 0, 0, 0, 0, 0, 0
"M1142811", 12.47, 1,    7163.78,  -38.7,   0.99503, 0, 0, 0, 0, 0, 0, 0, 0
"M1069565", 12.47, 2,    7274.17, -165.4,    1.0104, 0, 0, 0, 0, 0, 0, 0, 0
"L2785536", 12.47, 2,    7273.88, -165.4,    1.0103, 0, 0, 0, 0, 0, 0, 0, 0
"L3104114", 12.47, 2,    7271.24, -167.2,      1.01, 0, 0, 0, 0, 0, 0, 0, 0
"M1009824", 12.47, 2,    7268.13, -167.2,    1.0095, 0, 0, 0, 0, 0, 0, 0, 0
"L2745848", 12.47, 1,    7354.63,  -44.4,    1.0215, 2,    7320.23, -166.6,    1.0168, 3,    7315.84,   79.2,    1.0162
"L2673308", 12.47, 1,    7353.68,  -44.4,    1.0214, 2,    7316.87, -166.7,    1.0163, 3,    7314.85,   79.2,     1.016
"L2991939", 12.47, 1,    7351.86,  -44.4,    1.0212, 2,     7310.5, -166.7,    1.0154, 3,    7312.82,   79.2,    1.0157
"L2916606", 12.47, 3,    7345.96,   81.4,    1.0203, 0, 0, 0, 0, 0, 0, 0, 0
"L2822864", 12.47, 3,    7345.86,   81.4,    1.0203, 0, 0, 0, 0, 0, 0, 0, 0
"M1142851", 12.47, 1,    7153.06,  -38.5,   0.99354, 2,    7220.98, -158.9,     1.003, 3,    7464.08,   82.6,    1.0367
"196-31070", 12.47, 1,    7151.12,  -38.5,   0.99327, 2,    7219.84, -159.0,    1.0028, 3,    7463.95,   82.6,    1.0367
"M1209822", 12.47, 3,    7451.33,   84.9,     1.035, 0, 0, 0, 0, 0, 0, 0, 0
"M1209823", 12.47, 3,     7448.1,   84.9,    1.0345, 0, 0, 0, 0, 0, 0, 0, 0
"M1069550", 12.47, 2,    7278.47, -165.3,     1.011, 0, 0, 0, 0, 0, 0, 0, 0
"M1069551", 12.47, 2,     7278.1, -165.3,    1.0109, 0, 0, 0, 0, 0, 0, 0, 0
"L3141397", 12.47, 2,    7168.48, -167.0,   0.99568, 0, 0, 0, 0, 0, 0, 0, 0
"L3649299", 12.47, 1,    7368.22,  -44.6,    1.0234, 0, 0, 0, 0, 0, 0, 0, 0
"M3772794", 12.47, 1,    7368.16,  -44.6,    1.0234, 0, 0, 0, 0, 0, 0, 0, 0
"P895106", 12.47, 2,    7103.16, -160.9,   0.98661, 0, 0, 0, 0, 0, 0, 0, 0
"L3048887", 12.47, 2,    7102.71, -160.9,   0.98655, 0, 0, 0, 0, 0, 0, 0, 0
"M1047824", 12.47, 2,    7142.57, -167.1,   0.99208, 0, 0, 0, 0, 0, 0, 0, 0
"M1047834", 12.47, 2,    7138.13, -167.1,   0.99147, 0, 0, 0, 0, 0, 0, 0, 0
"M1069350", 12.47, 1,    7335.98,  -44.3,    1.0189, 2,    7226.51, -166.9,    1.0037, 3,    7273.98,   78.8,    1.0103
"N1144668", 12.47, 1,    7336.25,  -44.3,     1.019, 2,    7226.34, -166.9,    1.0037, 3,    7273.09,   78.8,    1.0102
"L2879072", 12.47, 2,    7181.57, -167.1,    0.9975, 0, 0, 0, 0, 0, 0, 0, 0
"M1047441", 12.47, 2,    7167.12, -167.1,   0.99549, 0, 0, 0, 0, 0, 0, 0, 0
"M1108274", 12.47, 2,    7419.41, -160.5,    1.0305, 0, 0, 0, 0, 0, 0, 0, 0
"M1108269", 12.47, 2,    7419.29, -160.5,    1.0305, 0, 0, 0, 0, 0, 0, 0, 0
"L3235244", 12.47, 1,    7327.39,  -44.3,    1.0178, 0, 0, 0, 0, 0, 0, 0, 0
"M1069398", 12.47, 1,       7327,  -44.3,    1.0177, 0, 0, 0, 0, 0, 0, 0, 0
"N1147862", 12.47, 1,    7266.63,  -44.9,    1.0093, 0, 0, 0, 0, 0, 0, 0, 0
"L2685805", 12.47, 1,    7266.47,  -44.9,    1.0093, 0, 0, 0, 0, 0, 0, 0, 0
"M1069247", 12.47, 1,    7336.47,  -44.3,     1.019, 0, 0, 0, 0, 0, 0, 0, 0
"M1069248", 12.47, 1,    7336.22,  -44.3,     1.019, 0, 0, 0, 0, 0, 0, 0, 0
"L2786273", 12.47, 2,     7418.7, -160.5,    1.0304, 0, 0, 0, 0, 0, 0, 0, 0
"M1108278", 12.47, 2,    7418.17, -160.5,    1.0304, 0, 0, 0, 0, 0, 0, 0, 0
"L3254238", 12.47, 1,    7219.46,  -40.8,    1.0028, 2,    7156.09, -161.8,   0.99396, 3,    7406.53,   79.9,    1.0287
"M1047303", 12.47, 1,    7214.45,  -40.8,    1.0021, 2,     7148.4, -161.8,   0.99289, 3,       7405,   79.9,    1.0285
"M1047633", 12.47, 3,       7414,   79.5,    1.0298, 0, 0, 0, 0, 0, 0, 0, 0
"L2897554", 12.47, 3,    7413.45,   79.5,    1.0297, 0, 0, 0, 0, 0, 0, 0, 0
"M1069627", 12.47, 2,    7225.21, -165.5,    1.0036, 0, 0, 0, 0, 0, 0, 0, 0
"L2897791", 12.47, 2,    7223.73, -165.5,    1.0034, 0, 0, 0, 0, 0, 0, 0, 0
"M1089097", 12.47, 2,    7423.33, -160.5,    1.0311, 0, 0, 0, 0, 0, 0, 0, 0
"M1108270", 12.47, 2,    7422.36, -160.5,    1.0309, 0, 0, 0, 0, 0, 0, 0, 0
"N1142101", 12.47, 1,    6817.04,  -41.1,   0.94687, 0, 0, 0, 0, 0, 0, 0, 0
"L2936214", 12.47, 1,    6816.97,  -41.1,   0.94686, 0, 0, 0, 0, 0, 0, 0, 0
"L3066810", 12.47, 3,    7300.86,   79.0,    1.0141, 0, 0, 0, 0, 0, 0, 0, 0
"L2897769", 12.47, 3,     7299.8,   79.0,    1.0139, 0, 0, 0, 0, 0, 0, 0, 0
"M1209758", 12.47, 2,    7376.85, -156.5,    1.0246, 0, 0, 0, 0, 0, 0, 0, 0
"M1209753", 12.47, 2,    7376.36, -156.5,    1.0246, 0, 0, 0, 0, 0, 0, 0, 0
"M1047528", 12.47, 1,    7448.06,  -44.3,    1.0345, 2,    7453.47, -166.4,    1.0353, 3,    7428.21,   79.6,    1.0318
"L2858166", 12.47, 1,    7447.54,  -44.3,    1.0344, 2,    7453.02, -166.4,    1.0352, 3,    7428.04,   79.6,    1.0317
"M1142843", 12.47, 1,    7171.88,  -38.4,   0.99616, 2,    7232.04, -158.8,    1.0045, 3,    7465.49,   82.6,    1.0369
"L3081380", 12.47, 1,    7171.54,  -38.4,   0.99611, 2,    7228.18, -158.8,     1.004, 3,    7462.55,   82.6,    1.0365
"L2804272", 12.47, 2,    7277.67, -165.3,    1.0108, 0, 0, 0, 0, 0, 0, 0, 0
"L2841641", 12.47, 2,    7277.58, -165.3,    1.0108, 0, 0, 0, 0, 0, 0, 0, 0
"M1069393", 12.47, 2,    7205.83, -167.0,    1.0009, 0, 0, 0, 0, 0, 0, 0, 0
"M1069408", 12.47, 2,     7200.7, -167.0,    1.0002, 0, 0, 0, 0, 0, 0, 0, 0
"N1142104", 12.47, 1,    6788.01,  -41.3,   0.94284, 2,    7026.36, -162.5,   0.97594, 3,    7453.76,   81.3,    1.0353
"M1108500", 12.47, 1,    6782.76,  -41.3,   0.94211, 2,    7023.75, -162.6,   0.97558, 3,    7453.68,   81.3,    1.0353
"L3216348", 12.47, 1,    7167.18,  -44.8,    0.9955, 0, 0, 0, 0, 0, 0, 0, 0
"L2841627", 12.47, 1,    7165.53,  -44.8,   0.99527, 0, 0, 0, 0, 0, 0, 0, 0
"L2916599", 12.47, 1,     7321.9,  -44.8,     1.017, 0, 0, 0, 0, 0, 0, 0, 0
"M1047447", 12.47, 2,     7151.7, -167.1,   0.99335, 0, 0, 0, 0, 0, 0, 0, 0
"L2954349", 12.47, 2,    7151.56, -167.1,   0.99333, 0, 0, 0, 0, 0, 0, 0, 0
"L3235246", 12.47, 2,    7142.42, -167.1,   0.99206, 0, 0, 0, 0, 0, 0, 0, 0
"M1125911", 12.47, 2,    7184.78, -159.2,   0.99795, 0, 0, 0, 0, 0, 0, 0, 0
"L2711224", 12.47, 2,    7183.38, -159.2,   0.99775, 0, 0, 0, 0, 0, 0, 0, 0
"N1147863", 12.47, 3,    7373.67,   79.5,    1.0242, 0, 0, 0, 0, 0, 0, 0, 0
"L3122817", 12.47, 3,    7373.66,   79.5,    1.0242, 0, 0, 0, 0, 0, 0, 0, 0
"M1186061", 12.47, 1,    7361.21,  -36.4,    1.0225, 2,    7378.52, -156.5,    1.0249, 3,    7503.99,   84.2,    1.0423
"L2861223", 12.47, 2,    7378.43, -156.5,    1.0248, 0, 0, 0, 0, 0, 0, 0, 0
"M1069130", 12.47, 1,    7303.09,  -40.7,    1.0144, 0, 0, 0, 0, 0, 0, 0, 0
"L3085396", 12.47, 1,    7302.79,  -40.7,    1.0143, 0, 0, 0, 0, 0, 0, 0, 0
"E182730", 12.47, 1,    7297.22,  -44.5,    1.0136, 0, 0, 0, 0, 0, 0, 0, 0
"N1142109", 12.47, 1,    7297.14,  -44.5,    1.0136, 0, 0, 0, 0, 0, 0, 0, 0
"M1069417", 12.47, 1,    7334.67,  -44.3,    1.0188, 2,    7242.55, -166.9,     1.006, 3,    7289.84,   78.9,    1.0125
"N1138597", 12.47, 1,    7334.34,  -44.3,    1.0187, 2,    7241.14, -166.9,    1.0058, 3,    7289.33,   78.9,    1.0125
"M1026987", 12.47, 2,    7161.71, -167.0,   0.99474, 0, 0, 0, 0, 0, 0, 0, 0
"M1026990", 12.47, 2,    7160.18, -167.0,   0.99453, 0, 0, 0, 0, 0, 0, 0, 0
"M1142832", 12.47, 1,    7170.77,  -38.5,     0.996, 2,    7220.07, -158.9,    1.0028, 3,    7456.46,   82.4,    1.0357
"L3160865", 12.47, 1,    7170.44,  -38.5,   0.99596, 2,     7217.8, -158.9,    1.0025, 3,    7454.91,   82.4,    1.0355
"L2673323", 12.47, 3,    7363.29,   79.5,    1.0227, 0, 0, 0, 0, 0, 0, 0, 0
"M1009809", 12.47, 3,     7363.1,   79.5,    1.0227, 0, 0, 0, 0, 0, 0, 0, 0
"L2822869", 12.47, 1,    7358.84,  -44.4,    1.0221, 2,    7404.19, -166.4,    1.0284, 3,    7349.02,   79.6,    1.0208
"M1026808", 12.47, 1,    7349.41,  -44.4,    1.0208, 2,    7403.28, -166.4,    1.0283, 3,    7342.81,   79.6,    1.0199
"M1047825", 12.47, 2,    7128.12, -167.1,   0.99008, 0, 0, 0, 0, 0, 0, 0, 0
"M1069731", 12.47, 2,     7126.5, -167.1,   0.98985, 0, 0, 0, 0, 0, 0, 0, 0
"N1140520", 12.47, 3,     7342.8,   79.6,    1.0199, 0, 0, 0, 0, 0, 0, 0, 0
"L2729410", 12.47, 3,    7342.76,   79.6,    1.0199, 0, 0, 0, 0, 0, 0, 0, 0
"L3178978", 12.47, 1,    7189.81,  -44.7,   0.99865, 0, 0, 0, 0, 0, 0, 0, 0
"M1069384", 12.47, 1,    7328.79,  -44.3,     1.018, 0, 0, 0, 0, 0, 0, 0, 0
"L3066805", 12.47, 1,     7328.7,  -44.3,    1.0179, 0, 0, 0, 0, 0, 0, 0, 0
"M4362181", 12.47, 2,    7132.99, -167.2,   0.99075, 0, 0, 0, 0, 0, 0, 0, 0
"M1047319", 12.47, 3,    7399.83,   79.9,    1.0278, 0, 0, 0, 0, 0, 0, 0, 0
"M1047318", 12.47, 3,    7399.43,   79.9,    1.0278, 0, 0, 0, 0, 0, 0, 0, 0
"L3216358", 12.47, 1,    7309.51,  -44.8,    1.0153, 0, 0, 0, 0, 0, 0, 0, 0
"M1026826", 12.47, 1,    7308.19,  -44.8,    1.0151, 0, 0, 0, 0, 0, 0, 0, 0
"M1108276", 12.47, 2,    7419.01, -160.5,    1.0305, 0, 0, 0, 0, 0, 0, 0, 0
"M1089198", 12.47, 1,    7328.14,  -42.4,    1.0179, 2,    7382.17, -164.0,    1.0254, 3,    7502.03,   80.7,     1.042
"M1089201", 12.47, 1,    7311.47,  -42.5,    1.0155, 2,    7371.85, -164.2,    1.0239, 3,    7502.71,   80.6,    1.0421
"M1047763", 12.47, 1,    7348.93,  -44.1,    1.0207, 2,    7201.39, -167.0,    1.0003, 3,    7453.22,   79.5,    1.0352
"N1136027", 12.47, 1,    7348.64,  -44.1,    1.0207, 0, 0, 0, 0, 0, 0, 0, 0
"L3101827", 12.47, 3,    7496.79,   81.1,    1.0413, 0, 0, 0, 0, 0, 0, 0, 0
"M1108540", 12.47, 3,    7493.78,   81.1,    1.0409, 0, 0, 0, 0, 0, 0, 0, 0
"M1026335", 12.47, 1,    7167.83,  -40.7,   0.99559, 0, 0, 0, 0, 0, 0, 0, 0
"L2804259", 12.47, 1,    7167.71,  -40.7,   0.99558, 0, 0, 0, 0, 0, 0, 0, 0
"N1136357", 12.47, 3,    7517.19,   80.2,    1.0441, 0, 0, 0, 0, 0, 0, 0, 0
"M1047513", 12.47, 1,    7396.37,  -44.4,    1.0273, 2,    7416.22, -166.4,    1.0301, 3,    7376.42,   79.6,    1.0246
"M1047507", 12.47, 1,    7382.83,  -44.4,    1.0255, 2,    7406.28, -166.4,    1.0287, 3,    7364.56,   79.6,    1.0229
"M1142863", 12.47, 1,    7132.66,  -38.7,   0.99071, 2,     7208.9, -159.1,    1.0013, 3,    7462.48,   82.5,    1.0365
"N1141480", 12.47, 3,    7462.47,   82.5,    1.0365, 0, 0, 0, 0, 0, 0, 0, 0
"M1125916", 12.47, 2,    7186.11, -159.2,   0.99813, 0, 0, 0, 0, 0, 0, 0, 0
"L2879767", 12.47, 2,    7185.96, -159.2,   0.99811, 0, 0, 0, 0, 0, 0, 0, 0
"L3066809", 12.47, 3,    7308.78,   79.2,    1.0152, 0, 0, 0, 0, 0, 0, 0, 0
"M1069487", 12.47, 3,    7307.32,   79.2,     1.015, 0, 0, 0, 0, 0, 0, 0, 0
"M1142818", 12.47, 1,    7168.31,  -38.6,   0.99566, 2,    7204.08, -159.0,    1.0006, 3,    7445.54,   82.2,    1.0342
"P829965", 12.47, 1,    7167.22,  -38.7,   0.99551, 2,    7203.68, -159.0,    1.0006, 3,    7445.61,   82.2,    1.0342
"Q14733", 12.47, 1,     7555.3,  -44.0,    1.0494, 2,    7537.51, -166.0,    1.0469, 3,    7486.58,   79.8,    1.0399
"M1047568", 12.47, 1,    7552.47,  -44.0,     1.049, 2,    7535.34, -166.0,    1.0466, 3,    7484.94,   79.8,    1.0396
"M1047322", 12.47, 1,    7253.63,  -40.8,    1.0075, 0, 0, 0, 0, 0, 0, 0, 0
"L2954338", 12.47, 2,    7266.76, -167.2,    1.0093, 0, 0, 0, 0, 0, 0, 0, 0
"M1047409", 12.47, 1,    7169.01,  -44.8,   0.99576, 0, 0, 0, 0, 0, 0, 0, 0
"L2841648", 12.47, 1,    7168.64,  -44.8,   0.99571, 0, 0, 0, 0, 0, 0, 0, 0
"M1089177", 12.47, 3,    7260.87,   81.3,    1.0085, 0, 0, 0, 0, 0, 0, 0, 0
"M1026951", 12.47, 2,    7324.04, -167.1,    1.0173, 0, 0, 0, 0, 0, 0, 0, 0
"L2954347", 12.47, 2,     7323.8, -167.1,    1.0173, 0, 0, 0, 0, 0, 0, 0, 0
"M4122657", 12.47, 3,    7386.74,   84.8,     1.026, 0, 0, 0, 0, 0, 0, 0, 0
"L3027124", 12.47, 3,    7386.32,   84.8,    1.0259, 0, 0, 0, 0, 0, 0, 0, 0
"M1069419", 12.47, 1,    7336.11,  -44.3,     1.019, 2,    7248.81, -166.9,    1.0068, 3,    7291.88,   78.9,    1.0128
"M1069418", 12.47, 1,     7335.6,  -44.3,    1.0189, 2,    7246.58, -166.9,    1.0065, 3,    7291.15,   78.9,    1.0127
"M1026824", 12.47, 1,    7252.71,  -44.9,    1.0074, 2,    7298.29, -167.2,    1.0137, 3,    7365.08,   79.5,     1.023
"P859694", 12.47, 3,    7364.97,   79.5,     1.023, 0, 0, 0, 0, 0, 0, 0, 0
"M1047453", 12.47, 2,    7137.56, -167.2,   0.99139, 0, 0, 0, 0, 0, 0, 0, 0
"L2691948", 12.47, 2,    7137.48, -167.2,   0.99138, 0, 0, 0, 0, 0, 0, 0, 0
"P860892", 12.47, 3,    7421.66,   80.4,    1.0308, 0, 0, 0, 0, 0, 0, 0, 0
"N1139543", 12.47, 3,    7421.59,   80.4,    1.0308, 0, 0, 0, 0, 0, 0, 0, 0
"M1089205", 12.47, 1,     7305.1,  -42.5,    1.0147, 0, 0, 0, 0, 0, 0, 0, 0
"N1134472", 12.47, 1,    7305.06,  -42.5,    1.0147, 0, 0, 0, 0, 0, 0, 0, 0
"L2710542", 12.47, 2,    7295.77, -167.2,    1.0134, 0, 0, 0, 0, 0, 0, 0, 0
"M3032980", 12.47, 1,    7364.03,  -36.4,    1.0228, 2,    7382.05, -156.5,    1.0253, 3,    7506.63,   84.2,    1.0427
"M3032977", 12.47, 1,    7328.51,  -36.8,    1.0179, 2,     7354.7, -156.9,    1.0215, 3,    7498.72,   83.9,    1.0416
"M3763618", 12.47, 1,    7395.11,  -44.5,    1.0272, 2,    7421.58, -166.6,    1.0308, 3,    7406.78,   79.5,    1.0288
"P1121282", 12.47, 3,    7406.77,   79.5,    1.0288, 0, 0, 0, 0, 0, 0, 0, 0
"L2917330", 12.47, 1,    7163.29,  -38.7,   0.99496, 0, 0, 0, 0, 0, 0, 0, 0
"L2861222", 12.47, 1,    7162.96,  -38.7,   0.99492, 0, 0, 0, 0, 0, 0, 0, 0
"M1047490", 12.47, 1,    7366.45,  -44.4,    1.0232, 2,    7379.89, -166.5,     1.025, 3,       7347,   79.5,    1.0205
"P1164481", 12.47, 1,    7365.37,  -44.4,     1.023, 0, 0, 0, 0, 0, 0, 0, 0
"M1069356", 12.47, 3,    7271.69,   78.8,      1.01, 0, 0, 0, 0, 0, 0, 0, 0
"M1069363", 12.47, 3,    7271.56,   78.8,      1.01, 0, 0, 0, 0, 0, 0, 0, 0
"P828359", 12.47, 3,    7416.43,   79.6,    1.0301, 0, 0, 0, 0, 0, 0, 0, 0
"L2878848", 12.47, 3,    7414.92,   79.6,    1.0299, 0, 0, 0, 0, 0, 0, 0, 0
"M1047486", 12.47, 1,    7359.78,  -44.4,    1.0223, 2,    7348.94, -166.6,    1.0207, 3,    7329.96,   79.3,    1.0181
"L3177665", 12.47, 1,    7359.74,  -44.4,    1.0222, 0, 0, 0, 0, 0, 0, 0, 0
"L2805036", 12.47, 2,     7418.1, -160.5,    1.0304, 0, 0, 0, 0, 0, 0, 0, 0
"L2692654", 12.47, 1,     7168.1,  -38.8,   0.99563, 0, 0, 0, 0, 0, 0, 0, 0
"M1125929", 12.47, 1,    7168.09,  -38.8,   0.99563, 0, 0, 0, 0, 0, 0, 0, 0
"M1047669", 12.47, 1,    7396.38,  -44.3,    1.0273, 2,    7362.62, -166.6,    1.0226, 3,    7419.73,   79.6,    1.0306
"M1047672", 12.47, 1,    7396.21,  -44.3,    1.0273, 2,    7362.21, -166.6,    1.0226, 3,    7419.78,   79.6,    1.0306
"M1125919", 12.47, 1,    7168.45,  -38.8,   0.99568, 2,    7190.69, -159.1,   0.99877, 3,    7436.02,   82.0,    1.0328
"P829961", 12.47, 1,    7168.42,  -38.8,   0.99567, 0, 0, 0, 0, 0, 0, 0, 0
"M1142819", 12.47, 1,    7168.64,  -38.6,   0.99571, 2,    7206.45, -159.0,     1.001, 3,    7447.29,   82.2,    1.0344
"P829960", 12.47, 2,    7206.44, -159.0,     1.001, 0, 0, 0, 0, 0, 0, 0, 0
"P829979", 12.47, 2,    7380.46, -156.5,    1.0251, 0, 0, 0, 0, 0, 0, 0, 0
"M3036172", 12.47, 2,     7380.2, -156.5,    1.0251, 0, 0, 0, 0, 0, 0, 0, 0
"M1026883", 12.47, 3,    7404.45,   79.5,    1.0285, 0, 0, 0, 0, 0, 0, 0, 0
"M1026898", 12.47, 3,    7404.25,   79.5,    1.0284, 0, 0, 0, 0, 0, 0, 0, 0
"M1089143", 12.47, 1,    7030.79,  -39.6,   0.97656, 2,    7018.21, -160.0,   0.97481, 3,    7311.13,   81.0,    1.0155
"L3141400", 12.47, 1,    7030.69,  -39.6,   0.97655, 0, 0, 0, 0, 0, 0, 0, 0
"M1069481", 12.47, 1,    7355.08,  -44.4,    1.0216, 2,     7321.8, -166.6,     1.017, 3,     7316.3,   79.2,    1.0162
"P827507", 12.47, 3,    7316.28,   79.2,    1.0162, 0, 0, 0, 0, 0, 0, 0, 0
"M1026377", 12.47, 1,    7156.73,  -40.7,   0.99405, 0, 0, 0, 0, 0, 0, 0, 0
"L3048210", 12.47, 1,    7156.28,  -40.7,   0.99399, 0, 0, 0, 0, 0, 0, 0, 0
"E182722", 12.47, 1,     7332.4,  -44.3,    1.0185, 0, 0, 0, 0, 0, 0, 0, 0
"M1026331", 12.47, 1,    7167.46,  -40.7,   0.99554, 2,    7072.07, -161.9,   0.98229, 3,    7413.94,   79.9,    1.0298
"L3214055", 12.47, 3,    7413.84,   79.9,    1.0298, 0, 0, 0, 0, 0, 0, 0, 0
"M1108295", 12.47, 1,    7141.41,  -39.2,   0.99192, 2,    7138.19, -159.6,   0.99148, 3,    7399.86,   81.4,    1.0278
"L2936279", 12.47, 1,     7128.9,  -39.2,   0.99019, 2,    7124.37, -159.6,   0.98956, 3,    7389.47,   81.4,    1.0264
"M1026704", 12.47, 2,     7122.6, -167.2,   0.98931, 0, 0, 0, 0, 0, 0, 0, 0
"L2841634", 12.47, 2,    7122.14, -167.2,   0.98925, 0, 0, 0, 0, 0, 0, 0, 0
"M1047386", 12.47, 2,    7204.79, -161.7,    1.0007, 0, 0, 0, 0, 0, 0, 0, 0
"M1047379", 12.47, 2,     7203.9, -161.7,    1.0006, 0, 0, 0, 0, 0, 0, 0, 0
"M1089115", 12.47, 1,    7446.63,  -40.1,    1.0343, 2,    7410.54, -160.6,    1.0293, 3,    7442.02,   80.5,    1.0337
"M1026486", 12.47, 2,    7180.28, -161.7,   0.99732, 0, 0, 0, 0, 0, 0, 0, 0
"M1026488", 12.47, 2,    7180.27, -161.7,   0.99732, 0, 0, 0, 0, 0, 0, 0, 0
"L3010570", 12.47, 1,    7168.03,  -40.7,   0.99562, 0, 0, 0, 0, 0, 0, 0, 0
"P904451", 12.47, 1,    6873.21,  -40.5,   0.95467, 0, 0, 0, 0, 0, 0, 0, 0
"221-282819", 12.47, 1,     6873.1,  -40.5,   0.95466, 0, 0, 0, 0, 0, 0, 0, 0
"M1125968", 12.47, 1,    6951.65,  -40.0,   0.96557, 2,    7106.11, -160.9,   0.98702, 3,    7456.35,   81.9,    1.0357
"P895107", 12.47, 3,    7456.27,   81.9,    1.0357, 0, 0, 0, 0, 0, 0, 0, 0
"N1136999", 12.47, 1,    7396.15,  -44.3,    1.0273, 0, 0, 0, 0, 0, 0, 0, 0
"M1069412", 12.47, 2,    7194.67, -167.0,   0.99932, 0, 0, 0, 0, 0, 0, 0, 0
"L2879061", 12.47, 2,    7194.59, -167.0,   0.99931, 0, 0, 0, 0, 0, 0, 0, 0
"M1026947", 12.47, 2,    7324.19, -167.1,    1.0173, 0, 0, 0, 0, 0, 0, 0, 0
"M1142880", 12.47, 3,    7366.69,   84.7,    1.0232, 0, 0, 0, 0, 0, 0, 0, 0
"L2891575", 12.47, 3,    7366.53,   84.7,    1.0232, 0, 0, 0, 0, 0, 0, 0, 0
"M1026848", 12.47, 1,    7293.82,  -44.9,    1.0131, 0, 0, 0, 0, 0, 0, 0, 0
"M1026847", 12.47, 1,    7293.71,  -44.9,    1.0131, 0, 0, 0, 0, 0, 0, 0, 0
"L2897793", 12.47, 1,    7175.44,  -43.5,   0.99665, 0, 0, 0, 0, 0, 0, 0, 0
"M1069521", 12.47, 1,    7175.21,  -43.5,   0.99662, 0, 0, 0, 0, 0, 0, 0, 0
"M1069175", 12.47, 1,    7411.39,  -40.2,    1.0294, 2,    7377.44, -160.8,    1.0247, 3,    7429.91,   80.4,     1.032
"L3197637", 12.47, 3,    7429.83,   80.4,     1.032, 0, 0, 0, 0, 0, 0, 0, 0
"L3197635", 12.47, 2,    7167.02, -167.1,   0.99548, 0, 0, 0, 0, 0, 0, 0, 0
"L2804257", 12.47, 2,    7308.47, -167.1,    1.0151, 0, 0, 0, 0, 0, 0, 0, 0
"L2860485", 12.47, 2,    7308.23, -167.1,    1.0151, 0, 0, 0, 0, 0, 0, 0, 0
"L3235945", 12.47, 3,    7492.53,   81.1,    1.0407, 0, 0, 0, 0, 0, 0, 0, 0
"L2842330", 12.47, 3,    7492.15,   81.1,    1.0406, 0, 0, 0, 0, 0, 0, 0, 0
"L2804254", 12.47, 1,    7344.42,  -44.1,    1.0201, 0, 0, 0, 0, 0, 0, 0, 0
"M1047752", 12.47, 1,    7344.37,  -44.1,    1.0201, 0, 0, 0, 0, 0, 0, 0, 0
"M1166370", 12.47, 3,    7489.33,   83.6,    1.0402, 0, 0, 0, 0, 0, 0, 0, 0
"M1166364", 12.47, 3,    7489.24,   83.6,    1.0402, 0, 0, 0, 0, 0, 0, 0, 0
"M3763619", 12.47, 1,    7395.02,  -44.5,    1.0271, 2,    7421.63, -166.6,    1.0308, 3,    7407.06,   79.5,    1.0288
"M3037540", 12.47, 3,    7304.68,   81.4,    1.0146, 0, 0, 0, 0, 0, 0, 0, 0
"L2710509", 12.47, 3,    7304.67,   81.4,    1.0146, 0, 0, 0, 0, 0, 0, 0, 0
"L2763072", 12.47, 2,    7031.81, -162.0,    0.9767, 0, 0, 0, 0, 0, 0, 0, 0
"M4118754", 12.47, 2,    7028.08, -162.0,   0.97618, 0, 0, 0, 0, 0, 0, 0, 0
"M1089196", 12.47, 1,    7338.22,  -42.3,    1.0193, 2,    7388.43, -163.9,    1.0262, 3,    7501.64,   80.8,     1.042
"M1047484", 12.47, 1,    7358.81,  -44.4,    1.0221, 2,    7342.59, -166.6,    1.0199, 3,    7326.53,   79.3,    1.0176
"L3010560", 12.47, 1,    7358.23,  -44.4,     1.022, 2,    7338.82, -166.6,    1.0193, 3,    7324.49,   79.3,    1.0174
"L3254219", 12.47, 3,    7422.66,   79.8,     1.031, 0, 0, 0, 0, 0, 0, 0, 0
"L3254220", 12.47, 3,    7422.53,   79.8,     1.031, 0, 0, 0, 0, 0, 0, 0, 0
"M1026648", 12.47, 1,    7204.81,  -44.7,    1.0007, 0, 0, 0, 0, 0, 0, 0, 0
"M1026647", 12.47, 1,    7202.98,  -44.7,    1.0005, 0, 0, 0, 0, 0, 0, 0, 0
"M1089112", 12.47, 1,    7436.83,  -40.1,     1.033, 2,    7399.28, -160.6,    1.0277, 3,    7432.28,   80.4,    1.0323
"L2691951", 12.47, 3,    7428.16,   80.4,    1.0318, 0, 0, 0, 0, 0, 0, 0, 0
"M1108433", 12.47, 2,    7041.35, -161.6,   0.97803, 0, 0, 0, 0, 0, 0, 0, 0
"228-1048090-1_INT", 12.47, 2,    7041.35, -161.6,   0.97803, 0, 0, 0, 0, 0, 0, 0, 0
"M1026327", 12.47, 2,    7059.62, -162.0,   0.98056, 0, 0, 0, 0, 0, 0, 0, 0
"L2841636", 12.47, 2,    7053.24, -162.0,   0.97968, 0, 0, 0, 0, 0, 0, 0, 0
"L2990826", 12.47, 1,    6861.94,  -40.5,   0.95311, 2,    7044.27, -161.5,   0.97843, 3,    7446.54,   81.7,    1.0343
"L2911069", 12.47, 2,    7246.31, -167.3,    1.0065, 0, 0, 0, 0, 0, 0, 0, 0
"L2948732", 12.47, 2,    7246.06, -167.3,    1.0065, 0, 0, 0, 0, 0, 0, 0, 0
"M1108260", 12.47, 2,    7414.56, -160.5,    1.0299, 0, 0, 0, 0, 0, 0, 0, 0
"M1108259", 12.47, 2,    7414.42, -160.5,    1.0298, 0, 0, 0, 0, 0, 0, 0, 0
"M1069312", 12.47, 3,    7268.23,   78.8,    1.0095, 0, 0, 0, 0, 0, 0, 0, 0
"P873800", 12.47, 3,    7268.21,   78.8,    1.0095, 0, 0, 0, 0, 0, 0, 0, 0
"M1186078", 12.47, 3,    7420.84,   84.8,    1.0307, 0, 0, 0, 0, 0, 0, 0, 0
"L2876797", 12.47, 1,    7352.35,  -44.1,    1.0212, 2,    7216.14, -166.9,    1.0023, 3,    7449.59,   79.6,    1.0347
"R18241", 12.47, 1,    7350.92,  -44.1,     1.021, 2,    7209.99, -166.9,    1.0014, 3,     7451.1,   79.5,    1.0349
"L3254227", 12.47, 2,    7283.11, -165.3,    1.0116, 0, 0, 0, 0, 0, 0, 0, 0
"M3037455", 12.47, 3,    7455.66,   82.4,    1.0356, 0, 0, 0, 0, 0, 0, 0, 0
"L3217052", 12.47, 3,    7455.47,   82.4,    1.0355, 0, 0, 0, 0, 0, 0, 0, 0
"P827500", 12.47, 1,    7340.79,  -44.4,    1.0196, 0, 0, 0, 0, 0, 0, 0, 0
"L2822861", 12.47, 1,    7340.46,  -44.4,    1.0196, 0, 0, 0, 0, 0, 0, 0, 0
"M1047724", 12.47, 1,    7376.39,  -44.2,    1.0246, 2,    7303.45, -166.7,    1.0144, 3,    7429.37,   79.6,    1.0319
"M1047722", 12.47, 1,     7374.8,  -44.2,    1.0243, 2,    7298.24, -166.8,    1.0137, 3,     7430.4,   79.6,    1.0321
"D5534969-2_INT", 12.47, 1,    7230.42,  -43.1,    1.0043, 2,     7322.4, -165.1,    1.0171, 3,    7508.08,   80.3,    1.0429
"E182729", 12.47, 1,    7230.09,  -43.1,    1.0042, 2,    7322.07, -165.1,     1.017, 3,    7507.87,   80.3,    1.0428
"N1134477", 12.47, 1,    7232.53,  -43.1,    1.0046, 2,    7323.65, -165.1,    1.0172, 3,    7507.91,   80.3,    1.0428
"M1166355", 12.47, 1,    7259.56,  -37.5,    1.0083, 0, 0, 0, 0, 0, 0, 0, 0
"L2858200", 12.47, 1,    7259.56,  -37.5,    1.0083, 0, 0, 0, 0, 0, 0, 0, 0
"M1047699", 12.47, 1,    7389.67,  -44.3,    1.0264, 2,    7345.55, -166.7,    1.0203, 3,     7421.9,   79.6,    1.0309
"L2935554", 12.47, 1,    7386.29,  -44.3,    1.0259, 2,    7335.83, -166.7,    1.0189, 3,    7423.54,   79.6,    1.0311
"M1047292", 12.47, 1,    7194.71,  -40.7,   0.99933, 2,    7119.56, -161.8,   0.98889, 3,    7405.69,   79.9,    1.0286
"L2766750", 12.47, 3,    7405.46,   79.9,    1.0286, 0, 0, 0, 0, 0, 0, 0, 0
"L3649300", 12.47, 1,    7367.49,  -44.6,    1.0233, 0, 0, 0, 0, 0, 0, 0, 0
"M1047733", 12.47, 1,     7172.4,  -43.6,   0.99623, 0, 0, 0, 0, 0, 0, 0, 0
"L3066804", 12.47, 1,    7172.13,  -43.6,   0.99619, 0, 0, 0, 0, 0, 0, 0, 0
"M3327098", 12.47, 2,    7133.48, -167.1,   0.99082, 0, 0, 0, 0, 0, 0, 0, 0
"L2691943", 12.47, 2,    7133.16, -167.1,   0.99078, 0, 0, 0, 0, 0, 0, 0, 0
"P829986", 12.47, 1,    7169.33,  -38.9,    0.9958, 0, 0, 0, 0, 0, 0, 0, 0
"M1125904", 12.47, 1,    7169.27,  -38.9,   0.99579, 0, 0, 0, 0, 0, 0, 0, 0
"N1139550", 12.47, 1,    7199.22,  -44.7,   0.99995, 0, 0, 0, 0, 0, 0, 0, 0
"M1026307", 12.47, 2,    6985.41, -162.1,   0.97026, 0, 0, 0, 0, 0, 0, 0, 0
"L3085388", 12.47, 2,    6985.28, -162.1,   0.97024, 0, 0, 0, 0, 0, 0, 0, 0
"L3233413", 12.47, 2,    7042.08, -161.6,   0.97813, 0, 0, 0, 0, 0, 0, 0, 0
"L3122827", 12.47, 1,    7225.45,  -44.6,    1.0036, 0, 0, 0, 0, 0, 0, 0, 0
"L2954355", 12.47, 1,    7223.01,  -44.7,    1.0033, 0, 0, 0, 0, 0, 0, 0, 0
"P827576", 12.47, 2,    7271.92, -166.8,    1.0101, 0, 0, 0, 0, 0, 0, 0, 0
"N1139256", 12.47, 2,    7271.91, -166.8,      1.01, 0, 0, 0, 0, 0, 0, 0, 0
"L2952003", 12.47, 1,    6867.51,  -40.5,   0.95388, 2,    7049.99, -161.5,   0.97923, 3,    7451.15,   81.7,    1.0349
"N1136359", 12.47, 3,     7517.2,   80.2,    1.0441, 0, 0, 0, 0, 0, 0, 0, 0
"L3008237", 12.47, 3,    7517.12,   80.2,    1.0441, 0, 0, 0, 0, 0, 0, 0, 0
"M1089102", 12.47, 3,    7423.52,   80.4,    1.0311, 0, 0, 0, 0, 0, 0, 0, 0
"M1089096", 12.47, 3,    7421.34,   80.4,    1.0308, 0, 0, 0, 0, 0, 0, 0, 0
"P895102", 12.47, 2,    7110.11, -160.8,   0.98758, 0, 0, 0, 0, 0, 0, 0, 0
"M1125978", 12.47, 2,    7110.04, -160.8,   0.98757, 0, 0, 0, 0, 0, 0, 0, 0
"M1026706", 12.47, 1,    7225.72,  -44.6,    1.0036, 2,    7390.98, -166.3,    1.0266, 3,    7265.45,   79.7,    1.0092
"N1140825", 12.47, 1,    7225.66,  -44.6,    1.0036, 2,    7390.86, -166.3,    1.0266, 3,    7265.36,   79.7,    1.0091
"L3141399", 12.47, 3,     7389.9,   80.3,    1.0264, 0, 0, 0, 0, 0, 0, 0, 0
"M1069210", 12.47, 3,     7389.7,   80.3,    1.0264, 0, 0, 0, 0, 0, 0, 0, 0
"M3763624", 12.47, 1,     7395.1,  -44.5,    1.0272, 2,    7421.58, -166.6,    1.0308, 3,    7406.79,   79.5,    1.0288
"P1121283", 12.47, 3,    7406.67,   79.5,    1.0288, 0, 0, 0, 0, 0, 0, 0, 0
"M1142839", 12.47, 1,    7171.02,  -38.5,   0.99604, 2,    7222.61, -158.8,    1.0032, 3,     7458.3,   82.5,    1.0359
"L3067507", 12.47, 3,    7458.24,   82.5,    1.0359, 0, 0, 0, 0, 0, 0, 0, 0
"N1141478", 12.47, 2,    7206.38, -159.0,    1.0009, 0, 0, 0, 0, 0, 0, 0, 0
"M1142826", 12.47, 2,    7205.92, -159.0,    1.0009, 0, 0, 0, 0, 0, 0, 0, 0
"M1108334", 12.47, 3,    7378.94,   81.5,    1.0249, 0, 0, 0, 0, 0, 0, 0, 0
"L2692664", 12.47, 3,    7378.88,   81.5,    1.0249, 0, 0, 0, 0, 0, 0, 0, 0
"L2823544", 12.47, 1,    6764.86,  -41.4,   0.93962, 0, 0, 0, 0, 0, 0, 0, 0
"226-23751", 12.47, 1,     7169.6,  -38.9,   0.99584, 2,    7174.14, -159.3,   0.99647, 3,     7422.6,   81.7,     1.031
"P827536", 12.47, 1,    7318.21,  -44.8,    1.0165, 0, 0, 0, 0, 0, 0, 0, 0
"N1137999", 12.47, 1,    7317.78,  -44.8,    1.0164, 0, 0, 0, 0, 0, 0, 0, 0
"L3027157", 12.47, 1,    7359.71,  -44.2,    1.0222, 2,    7244.68, -166.9,    1.0063, 3,    7442.57,   79.6,    1.0338
"L2973155", 12.47, 1,    7356.08,  -44.1,    1.0217, 2,    7231.03, -166.9,    1.0044, 3,    7445.92,   79.6,    1.0342
"M1186052", 12.47, 1,     7356.6,  -36.4,    1.0218, 2,    7373.46, -156.5,    1.0242, 3,     7499.1,   84.2,    1.0416
"198-5320", 12.47, 1,    7356.56,  -36.4,    1.0218, 2,    7373.41, -156.5,    1.0241, 3,    7499.05,   84.2,    1.0416
"L3216346", 12.47, 1,    7219.83,  -44.9,    1.0028, 0, 0, 0, 0, 0, 0, 0, 0
"L2858163", 12.47, 1,    7218.56,  -44.9,    1.0026, 0, 0, 0, 0, 0, 0, 0, 0
"M1047813", 12.47, 2,    7142.91, -167.1,   0.99213, 0, 0, 0, 0, 0, 0, 0, 0
"L2973149", 12.47, 2,     7142.8, -167.1,   0.99212, 0, 0, 0, 0, 0, 0, 0, 0
"L3086079", 12.47, 2,    7380.19, -156.5,    1.0251, 0, 0, 0, 0, 0, 0, 0, 0
"M1069574", 12.47, 2,    7273.68, -165.4,    1.0103, 0, 0, 0, 0, 0, 0, 0, 0
"L2710530", 12.47, 2,    7273.62, -165.4,    1.0103, 0, 0, 0, 0, 0, 0, 0, 0
"M1069285", 12.47, 1,    7337.24,  -44.3,    1.0191, 3,    7268.47,   78.8,    1.0096, 0, 0, 0, 0
"M4113348", 12.47, 1,    7337.24,  -44.3,    1.0191, 3,    7268.46,   78.8,    1.0096, 0, 0, 0, 0
"L2879074", 12.47, 1,    7194.26,  -44.7,   0.99926, 0, 0, 0, 0, 0, 0, 0, 0
"M1026916", 12.47, 2,    7344.91, -167.1,    1.0202, 0, 0, 0, 0, 0, 0, 0, 0
"E193509", 12.47, 1,    7171.19,  -38.5,   0.99606, 2,     7224.8, -158.8,    1.0035, 3,    7459.95,   82.5,    1.0362
"M1047794", 12.47, 2,    7171.58, -167.0,   0.99611, 0, 0, 0, 0, 0, 0, 0, 0
"M1047796", 12.47, 2,    7171.43, -167.0,   0.99609, 0, 0, 0, 0, 0, 0, 0, 0
"L3027116", 12.47, 1,    7210.72,  -40.7,    1.0016, 2,    7143.11, -161.8,   0.99216, 3,    7405.02,   79.9,    1.0285
"L2929261", 12.47, 1,    7389.52,  -44.3,    1.0264, 0, 0, 0, 0, 0, 0, 0, 0
"M1166375", 12.47, 1,    7246.09,  -37.6,    1.0065, 2,    7291.58, -157.9,    1.0128, 3,    7481.79,   83.2,    1.0392
"P895080", 12.47, 1,    7246.07,  -37.6,    1.0065, 0, 0, 0, 0, 0, 0, 0, 0
"L2973156", 12.47, 2,    7215.81, -167.0,    1.0023, 0, 0, 0, 0, 0, 0, 0, 0
"M1069311", 12.47, 1,    7337.44,  -44.3,    1.0192, 2,     7225.6, -166.9,    1.0036, 3,    7269.25,   78.8,    1.0097
"M1069208", 12.47, 3,    7404.31,   80.4,    1.0284, 0, 0, 0, 0, 0, 0, 0, 0
"L2691945", 12.47, 3,    7404.24,   80.4,    1.0284, 0, 0, 0, 0, 0, 0, 0, 0
"N1140820", 12.47, 2,    7391.15, -166.3,    1.0266, 0, 0, 0, 0, 0, 0, 0, 0
"M1026468", 12.47, 2,    7182.13, -161.7,   0.99758, 0, 0, 0, 0, 0, 0, 0, 0
"P901909", 12.47, 2,    7182.12, -161.7,   0.99758, 0, 0, 0, 0, 0, 0, 0, 0
"M1026662", 12.47, 1,    7218.76,  -44.7,    1.0027, 2,    7392.18, -166.3,    1.0268, 3,    7252.68,   79.7,    1.0074
"N1141473", 12.47, 1,    7218.73,  -44.7,    1.0027, 0, 0, 0, 0, 0, 0, 0, 0
"M1026941", 12.47, 1,    7315.58,  -44.8,    1.0161, 0, 0, 0, 0, 0, 0, 0, 0
"M1026942", 12.47, 1,    7315.47,  -44.8,    1.0161, 0, 0, 0, 0, 0, 0, 0, 0
"N1137985", 12.47, 1,    7374.78,  -44.2,    1.0243, 0, 0, 0, 0, 0, 0, 0, 0
"M1047713", 12.47, 1,    7384.48,  -44.3,    1.0257, 2,     7330.5, -166.7,    1.0182, 3,    7424.44,   79.6,    1.0312
"M1047720", 12.47, 1,    7380.39,  -44.3,    1.0251, 2,     7316.6, -166.7,    1.0163, 3,    7426.74,   79.6,    1.0316
"M1108298", 12.47, 1,    7166.12,  -39.0,   0.99536, 2,    7165.54, -159.4,   0.99527, 3,    7420.02,   81.5,    1.0306
"196-36167", 12.47, 1,    7165.56,  -39.1,   0.99528, 2,    7164.92, -159.4,   0.99519, 3,    7420.04,   81.5,    1.0306
"E183472", 12.47, 1,    6888.05,  -40.5,   0.95673, 2,    7075.01, -161.5,    0.9827, 3,    7456.76,   81.7,    1.0357
"L2989566", 12.47, 1,    6878.49,  -40.5,    0.9554, 2,     7064.4, -161.5,   0.98123, 3,    7455.66,   81.7,    1.0356
"M1010007", 12.47, 1,    7144.28,  -45.1,   0.99232, 0, 0, 0, 0, 0, 0, 0, 0
"M1010004", 12.47, 1,     7143.3,  -45.1,   0.99219, 0, 0, 0, 0, 0, 0, 0, 0
"P862322", 12.47, 1,    6865.37,  -40.5,   0.95358, 2,    7047.81, -161.5,   0.97892, 3,     7449.3,   81.7,    1.0347
"M1089188", 12.47, 3,     7255.3,   81.3,    1.0077, 0, 0, 0, 0, 0, 0, 0, 0
"M1089189", 12.47, 3,    7254.85,   81.3,    1.0077, 0, 0, 0, 0, 0, 0, 0, 0
"L2972704", 12.47, 3,    7421.13,   80.4,    1.0308, 0, 0, 0, 0, 0, 0, 0, 0
"L3263051", 12.47, 3,    7420.93,   80.4,    1.0307, 0, 0, 0, 0, 0, 0, 0, 0
"N1139544", 12.47, 3,    7390.26,   80.3,    1.0265, 0, 0, 0, 0, 0, 0, 0, 0
"L2897776", 12.47, 3,    7390.15,   80.3,    1.0265, 0, 0, 0, 0, 0, 0, 0, 0
"N1230122", 12.47, 1,    6872.99,  -40.5,   0.95464, 0, 0, 0, 0, 0, 0, 0, 0
"L2689726", 12.47, 1,    7164.49,  -44.8,   0.99513, 0, 0, 0, 0, 0, 0, 0, 0
"M1142868", 12.47, 1,    7105.05,  -38.9,   0.98687, 2,    7192.68, -159.4,   0.99904, 3,    7460.95,   82.4,    1.0363
"M1142869", 12.47, 1,     7097.6,  -38.9,   0.98584, 2,     7188.3, -159.5,   0.99844, 3,    7460.55,   82.4,    1.0363
"L2767414", 12.47, 3,    7392.91,   81.5,    1.0269, 0, 0, 0, 0, 0, 0, 0, 0
"M1027027", 12.47, 3,    7297.89,   79.4,    1.0137, 0, 0, 0, 0, 0, 0, 0, 0
"L3270853", 12.47, 3,    7297.89,   79.4,    1.0137, 0, 0, 0, 0, 0, 0, 0, 0
"M1125982", 12.47, 2,    7109.73, -160.8,   0.98752, 0, 0, 0, 0, 0, 0, 0, 0
"M1069572", 12.47, 2,    7273.72, -165.4,    1.0103, 0, 0, 0, 0, 0, 0, 0, 0
"L3066826", 12.47, 2,    7273.39, -165.4,    1.0103, 0, 0, 0, 0, 0, 0, 0, 0
"M1166356", 12.47, 1,    7259.87,  -37.5,    1.0084, 0, 0, 0, 0, 0, 0, 0, 0
"L2730187", 12.47, 1,    7259.69,  -37.5,    1.0084, 0, 0, 0, 0, 0, 0, 0, 0
"L3122825", 12.47, 1,    7161.72,  -40.7,   0.99474, 0, 0, 0, 0, 0, 0, 0, 0
"L2991920", 12.47, 1,    7161.66,  -40.7,   0.99474, 0, 0, 0, 0, 0, 0, 0, 0
"N1134474", 12.47, 1,    7266.59,  -42.8,    1.0093, 2,    7344.01, -164.7,    1.0201, 3,    7505.25,   80.4,    1.0425
"M1069496", 12.47, 1,    7261.24,  -42.9,    1.0086, 2,     7340.8, -164.8,    1.0196, 3,    7505.66,   80.4,    1.0425
"L3122826", 12.47, 1,    7264.86,  -40.8,    1.0091, 0, 0, 0, 0, 0, 0, 0, 0
"M1047358", 12.47, 1,    7264.52,  -40.8,     1.009, 0, 0, 0, 0, 0, 0, 0, 0
"L3142078", 12.47, 2,       7413, -160.5,    1.0296, 0, 0, 0, 0, 0, 0, 0, 0
"L2879752", 12.47, 2,    7412.79, -160.5,    1.0296, 0, 0, 0, 0, 0, 0, 0, 0
"P850072", 12.47, 1,     6862.7,  -40.5,   0.95321, 2,     7045.2, -161.5,   0.97856, 3,    7447.28,   81.7,    1.0344
"221-311609", 12.47, 1,    6862.69,  -40.5,   0.95321, 2,    7045.19, -161.5,   0.97856, 3,    7447.27,   81.7,    1.0344
...